@<TRIPOS>MOLECULE
LI2
 21 21 0 0 0
SMALL
GASTEIGER

@<TRIPOS>ATOM
      1 N           0.8782    0.2922    0.0120 N.4     1  LI2         0.2188
      2 C           5.1769   -0.9795   -1.1507 C.ar    1  LI2        -0.0584
      3 C           6.5662   -0.9515   -1.0237 C.ar    1  LI2        -0.0615
      4 C           7.2432    0.2668   -1.0258 C.ar    1  LI2        -0.0617
      5 C           6.5327    1.4579   -1.1623 C.ar    1  LI2        -0.0615
      6 C           5.1438    1.4324   -1.2899 C.ar    1  LI2        -0.0584
      7 C           4.4528    0.2129   -1.2821 C.ar    1  LI2        -0.0423
      8 C           2.3390    0.3157    0.0552 C.3     1  LI2        -0.0313
      9 C           2.9451    0.1913   -1.3471 C.3     1  LI2         0.0126
     10 H           0.5086    0.3767    0.9589 H       1  LI2         0.1994
     11 H           0.5643   -0.5874   -0.3982 H       1  LI2         0.1994
     12 H           0.5422    1.0707   -0.5549 H       1  LI2         0.1994
     13 H           4.6797   -1.8838   -1.1478 H       1  LI2         0.0620
     14 H           7.0930   -1.8338   -0.9283 H       1  LI2         0.0618
     15 H           8.2702    0.2869   -0.9262 H       1  LI2         0.0618
     16 H           7.0345    2.3596   -1.1689 H       1  LI2         0.0618
     17 H           4.6218    2.3170   -1.3908 H       1  LI2         0.0620
     18 H           2.6822   -0.5006    0.6559 H       1  LI2         0.0816
     19 H           2.6473    1.2517    0.4721 H       1  LI2         0.0816
     20 H           2.6259   -0.7305   -1.7868 H       1  LI2         0.0365
     21 H           2.6150    1.0195   -1.9386 H       1  LI2         0.0365
@<TRIPOS>BOND
     1     1     8    1
     2     1    10    1
     3     1    11    1
     4     1    12    1
     5     2     3   ar
     6     2     7   ar
     7     2    13    1
     8     3     4   ar
     9     3    14    1
    10     4     5   ar
    11     4    15    1
    12     5     6   ar
    13     5    16    1
    14     6     7   ar
    15     6    17    1
    16     7     9    1
    17     8     9    1
    18     8    18    1
    19     8    19    1
    20     9    20    1
    21     9    21    1
